cases/case85.m
function mpc = case85

%% MATPOWER Case Format : Version 2
mpc.version = '2';

%%-----  Power Flow Data  -----%%
%% system MVA base
mpc.baseMVA = 1;

%% bus data
%	bus_i	type Pd		Qd	Gs	Bs	area	Vm	Va	baseKV	zone	Vmax	Vmin
mpc.bus = [
	1		3	0		0	0	0	1		1.0	0	1		1		1.06	0.94;
	2		1	0		0	0	0	1		.99	0	1		1		1.06	0.94;
	3		1	0		0	0	0	1		.99	0	1		1		1.06	0.94;
	4  		1 	56.0  	0	0	0	1		.98	0	1		1		1.06	0.94;
	5		1	0		0	0	0	1		.97	0	1		1		1.06	0.94;
	6  		1 	35.28 	0	0	0	1		.96	0	1		1		1.06	0.94;
	7		1	0		0	0	0	1		.96	0	1		1		1.06	0.94;
	8  		1 	35.28 	0	0	0	1		.92	0	1		1		1.06	0.94;
	9		1	0		0	0	0	1		.92	0	1		1		1.06	0.94;
	10		1	0		0	0	0	1		.91	0	1		1		1.06	0.94;
	11 		1 	56.0  	0	0	0	1		.91	0	1		1		1.06	0.94;
	12		1	0		0	0	0	1		.10	0	1		1		1.06	0.94;
	13		1	0		0	0	0	1		.91	0	1		1		1.06	0.94;
	14 		1 	35.28 	0	0	0	1		.91	0	1		1		1.06	0.94;
	15 		1 	35.28 	0	0	0	1		.91	0	1		1		1.06	0.94;
	16 		1 	35.28 	0	0	0	1		1.0	0	1		1		1.06	0.94;
	17 		1 	112.0 	0	0	0	1		.99	0	1		1		1.06	0.94;
	18 		1 	56.0  	0	0	0	1		.98	0	1		1		1.06	0.94;
	19 		1 	56.0  	0	0	0	1		.97	0	1		1		1.06	0.94;
	20 		1 	35.28 	0	0	0	1		.97	0	1		1		1.06	0.94;
	21 		1 	35.28 	0	0	0	1		.97	0	1		1		1.06	0.94;
	22 		1 	35.28 	0	0	0	1		.97	0	1		1		1.06	0.94;
	23 		1 	56.0  	0	0	0	1		.97	0	1		1		1.06	0.94;
	24 		1 	35.28 	0	0	0	1		.96	0	1		1		1.06	0.94;
	25 		1 	35.28 	0	0	0	1		.91	0	1		1		1.06	0.94;
	26 		1 	56.0  	0	0	0	1		.91	0	1		1		1.06	0.94;
	27		1	0		0	0	0	1		.90	0	1		1		1.06	0.94;
	28 		1 	56.0  	0	0	0	1		.90	0	1		1		1.06	0.94;
	29		1	0		0	0	0	1		.90	0	1		1		1.06	0.94;
	30 		1 	35.28 	0	0	0	1		.90	0	1		1		1.06	0.94;
	31 		1 	35.28 	0	0	0	1		.89	0	1		1		1.06	0.94;
	32		1	0		0	0	0	1		.89	0	1		1		1.06	0.94;
	33 		1 	14.0  	0	0	0	1		.89	0	1		1		1.06	0.94;
	34		1	0		0	0	0	1		.88	0	1		1		1.06	0.94;
	35		1	0		0	0	0	1		.88	0	1		1		1.06	0.94;
	36 		1 	35.28 	0	0	0	1		.88	0	1		1		1.06	0.94;
	37 		1 	56.0  	0	0	0	1		.91	0	1		1		1.06	0.94;
	38 		1 	56.0  	0	0	0	1		.90	0	1		1		1.06	0.94;
	39 		1 	56.0  	0	0	0	1		.90	0	1		1		1.06	0.94;
	40 		1 	35.28 	0	0	0	1		.89	0	1		1		1.06	0.94;
	41		1	0		0	0	0	1		.89	0	1		1		1.06	0.94;
	42 		1 	35.28 	0	0	0	1		.89	0	1		1		1.06	0.94;
	43 		1 	35.28 	0	0	0	1		.89	0	1		1		1.06	0.94;
	44 		1 	35.28 	0	0	0	1		.88	0	1		1		1.06	0.94;
	45 		1 	35.28	0	0	0	1		.002 0	1		1		1.06	0.94;
	46 		1 	35.28	0	0	0	1		.88	0	1		1		1.06	0.94;
	47 		1 	14.0	0	0	0	1		.88	0	1		1		1.06	0.94;
	48		1	0		0	0	0	1		.88	0	1		1		1.06	0.94;
	49		1	0		0	0	0	1		.88	0	1		1		1.06	0.94;
	50 		1 	36.28	0	0	0	1		.88	0	1		1		1.06	0.94;
	51 		1 	56.0	0	0	0	1		.88	0	1		1		1.06	0.94;
	52		1	0		0	0	0	1		.88	0	1		1		1.06	0.94;
	53 		1 	35.28	0	0	0	1		.88	0	1		1		1.06	0.94;
	54 		1 	56.0	0	0	0	1		.88	0	1		1		1.06	0.94;
	55 		1 	56.0	0	0	0	1		.88	0	1		1		1.06	0.94;
	56 		1 	14.0	0	0	0	1		.88	0	1		1		1.06	0.94;
	57 		1 	56.0	0	0	0	1		.91	0	1		1		1.06	0.94;
	58		1	0		0	0	0	1		.91	0	1		1		1.06	0.94;
	59 		1 	56.0	0	0	0	1		.91	0	1		1		1.06	0.94;
	60 		1 	56.0	0	0	0	1		.91	0	1		1		1.06	0.94;
	61 		1 	56.0	0	0	0	1		.91	0	1		1		1.06	0.94;
	62 		1 	56.0	0	0	0	1		.90	0	1		1		1.06	0.94;
	63 		1 	14.0	0	0	0	1		.90	0	1		1		1.06	0.94;
	64		1	0		0	0	0	1		.90	0	1		1		1.06	0.94;
	65		1	0		0	0	0	1		.90	0	1		1		1.06	0.94;
	66 		1 	56.0	0	0	0	1		.90	0	1		1		1.06	0.94;
	67		1	0		0	0	0	1		.90	0	1		1		1.06	0.94;
	68		1	0		0	0	0	1		.90	0	1		1		1.06	0.94;
	69 		1 	56.0	0	0	0	1		.90	0	1		1		1.06	0.94;
	70		1	0		0	0	0	1		.89	0	1		1		1.06	0.94;
	71 		1 	35.28	0	0	0	1		.89	0	1		1		1.06	0.94;
	72 		1 	56.0	0	0	0	1		.89	0	1		1		1.06	0.94;
	73		1	0		0	0	0	1		.89	0	1		1		1.06	0.94;
	74 		1 	56.0	0	0	0	1		.89	0	1		1		1.06	0.94;
	75 		1 	35.28	0	0	0	1		.89	0	1		1		1.06	0.94;
	76 		1 	56.0	0	0	0	1		.89	0	1		1		1.06	0.94;
	77 		1 	14.0	0	0	0	1		.91	0	1		1		1.06	0.94;
	78 		1 	56.0	0	0	0	1		.91	0	1		1		1.06	0.94;
	79 		1 	35.28	0	0	0	1		.91	0	1		1		1.06	0.94;
	80 		1 	56.0	0	0	0	1		.91	0	1		1		1.06	0.94;
	81		1	0		0	0	0	1		.91	0	1		1		1.06	0.94;
	82 		1 	56.0	0	0	0	1		.91	0	1		1		1.06	0.94;
	83 		1 	35.28	0	0	0	1		.91	0	1		1		1.06	0.94;
	84 		1 	14.0	0	0	0	1		.91	0	1		1		1.06	0.94;
	85 		1 	35.28	0	0	0	1		.91	0	1		1		1.06	0.94;
];

%% generator data
%	bus	Pg	Qg	Qmax	Qmin	Vg	mBase	status	Pmax	Pmin	Pc1	Pc2	Qc1min	Qc1max	Qc2min	Qc2max	ramp_agc	ramp_10	ramp_30	ramp_q	apf
mpc.gen = [
	1	2600	0	5000	-5000	1.0	1	1	5000	0	0	0	0	0	0	0	0	0	0	0	0;
];

%% branch data
%	fbus	tbus	r			x			b	rateA	rateB	rateC	ratio	angle	status	angmin	angmax	
mpc.branch = [
	 1  2 0.108 0.075	0	9900	0		0		0		0		1		-360	360;
	 2  3 0.163 0.112	0	9900	0		0		0		0		1		-360	360;
	 3  4 0.217 0.149	0	9900	0		0		0		0		1		-360	360;
	 4  5 0.108 0.074	0	9900	0		0		0		0		1		-360	360;
	 5  6 0.435 0.298	0	9900	0		0		0		0		1		-360	360;
	 6  7 0.272 0.186	0	9900	0		0		0		0		1		-360	360;
	 7  8 1.197 0.820	0	9900	0		0		0		0		1		-360	360;
	 8  9 0.108 0.074	0	9900	0		0		0		0		1		-360	360;
	 9 10 0.598 0.410	0	9900	0		0		0		0		1		-360	360;
	10 11 0.544 0.373	0	9900	0		0		0		0		1		-360	360;
	11 12 0.544 0.373	0	9900	0		0		0		0		1		-360	360;
	12 13 0.598 0.410	0	9900	0		0		0		0		1		-360	360;
	13 14 0.272 0.186	0	9900	0		0		0		0		1		-360	360;
	14 15 0.326 0.223	0	9900	0		0		0		0		1		-360	360;
	 2 16 0.728 0.302	0	9900	0		0		0		0		1		-360	360;
	 3 17 0.455 0.189	0	9900	0		0		0		0		1		-360	360;
	 5 18 0.820 0.340	0	9900	0		0		0		0		1		-360	360;
	18 19 0.637 0.264	0	9900	0		0		0		0		1		-360	360;
	19 20 0.455 0.189	0	9900	0		0		0		0		1		-360	360;
	20 21 0.819 0.340	0	9900	0		0		0		0		1		-360	360;
	21 22 1.548 0.642	0	9900	0		0		0		0		1		-360	360;
	19 23 0.182 0.075	0	9900	0		0		0		0		1		-360	360;
	 7 24 0.910 0.378	0	9900	0		0		0		0		1		-360	360;
	 8 25 0.455 0.189	0	9900	0		0		0		0		1		-360	360;
	25 26 0.364 0.151	0	9900	0		0		0		0		1		-360	360;
	26 27 0.546 0.226	0	9900	0		0		0		0		1		-360	360;
	27 28 0.273 0.113	0	9900	0		0		0		0		1		-360	360;
	28 29 0.546 0.226	0	9900	0		0		0		0		1		-360	360;
	29 30 0.546 0.226	0	9900	0		0		0		0		1		-360	360;
	30 31 0.273 0.113	0	9900	0		0		0		0		1		-360	360;
	31 32 0.182 0.075	0	9900	0		0		0		0		1		-360	360;
	32 33 0.182 0.075	0	9900	0		0		0		0		1		-360	360;
	33 34 0.819 0.340	0	9900	0		0		0		0		1		-360	360;
	34 35 0.637 0.264	0	9900	0		0		0		0		1		-360	360;
	35 36 0.182 0.075	0	9900	0		0		0		0		1		-360	360;
	26 37 0.364 0.151	0	9900	0		0		0		0		1		-360	360;
	27 38 1.002 0.416	0	9900	0		0		0		0		1		-360	360;
	29 39 0.546 0.226	0	9900	0		0		0		0		1		-360	360;
	32 40 0.455 0.189	0	9900	0		0		0		0		1		-360	360;
	40 41 1.002 0.416	0	9900	0		0		0		0		1		-360	360;
	41 42 0.273 0.113	0	9900	0		0		0		0		1		-360	360;
	41 43 0.455 0.189	0	9900	0		0		0		0		1		-360	360;
	34 44 1.002 0.416	0	9900	0		0		0		0		1		-360	360;
	44 45 0.911 0.378	0	9900	0		0		0		0		1		-360	360;
	45 46 0.911 0.378	0	9900	0		0		0		0		1		-360	360;
	46 47 0.546 0.226	0	9900	0		0		0		0		1		-360	360;
	35 48 0.637 0.264	0	9900	0		0		0		0		1		-360	360;
	48 49 0.182 0.075	0	9900	0		0		0		0		1		-360	360;
	49 50 0.364 0.151	0	9900	0		0		0		0		1		-360	360;
	50 51 0.455 0.189	0	9900	0		0		0		0		1		-360	360;
	48 52 1.366 0.567	0	9900	0		0		0		0		1		-360	360;
	52 53 0.455 0.189	0	9900	0		0		0		0		1		-360	360;
	53 54 0.546 0.226	0	9900	0		0		0		0		1		-360	360;
	52 55 0.546 0.226	0	9900	0		0		0		0		1		-360	360;
	49 56 0.546 0.226	0	9900	0		0		0		0		1		-360	360;
	 9 57 0.273 0.113	0	9900	0		0		0		0		1		-360	360;
	57 58 0.819 0.340	0	9900	0		0		0		0		1		-360	360;
	58 59 0.182 0.075	0	9900	0		0		0		0		1		-360	360;
	58 60 0.546 0.226	0	9900	0		0		0		0		1		-360	360;
	60 61 0.728 0.302	0	9900	0		0		0		0		1		-360	360;
	61 62 1.002 0.415	0	9900	0		0		0		0		1		-360	360;
	60 63 0.182 0.075	0	9900	0		0		0		0		1		-360	360;
	63 64 0.728 0.302	0	9900	0		0		0		0		1		-360	360;
	64 65 0.182 0.075	0	9900	0		0		0		0		1		-360	360;
	65 66 0.182 0.075	0	9900	0		0		0		0		1		-360	360;
	64 67 0.455 0.189	0	9900	0		0		0		0		1		-360	360;
	67 68 0.910 0.378	0	9900	0		0		0		0		1		-360	360;
	68 69 1.092 0.453	0	9900	0		0		0		0		1		-360	360;
	69 70 0.455 0.189	0	9900	0		0		0		0		1		-360	360;
	70 71 0.546 0.226	0	9900	0		0		0		0		1		-360	360;
	67 72 0.182 0.075	0	9900	0		0		0		0		1		-360	360;
	68 73 1.184 0.491	0	9900	0		0		0		0		1		-360	360;
	73 74 0.273 0.113	0	9900	0		0		0		0		1		-360	360;
	73 75 1.002 0.416	0	9900	0		0		0		0		1		-360	360;
	70 76 0.546 0.226	0	9900	0		0		0		0		1		-360	360;
	65 77 0.091 0.037	0	9900	0		0		0		0		1		-360	360;
	10 78 0.637 0.264	0	9900	0		0		0		0		1		-360	360;
	67 79 0.546 0.226	0	9900	0		0		0		0		1		-360	360;
	12 80 0.728 0.302	0	9900	0		0		0		0		1		-360	360;
	80 81 0.364 0.151	0	9900	0		0		0		0		1		-360	360;
	81 82 0.091 0.037	0	9900	0		0		0		0		1		-360	360;
	81 83 1.092 0.453	0	9900	0		0		0		0		1		-360	360;
	83 84 1.002 0.416	0	9900	0		0		0		0		1		-360	360;
	13 85 0.819 0.340	0	9900	0		0		0		0		1		-360	360;
];